*SPEF "ieee 1481-1999"
*DESIGN "I2cDeviceCtrl"
*DATE "17:51:46 Thursday February 26, 2026"
*VENDOR "The OpenROAD Project"
*PROGRAM "OpenROAD"
*VERSION "6975124cf258e3be0db86bd2e59246b7f0e9f0c7"
*DESIGN_FLOW "NAME_SCOPE LOCAL" "PIN_CAP NONE"
*DIVIDER /
*DELIMITER :
*BUS_DELIMITER []
*T_UNIT 1 NS
*C_UNIT 1 PF
*R_UNIT 1 OHM
*L_UNIT 1 HENRY

*NAME_MAP
*1 _000_
*2 _001_
*3 _002_
*4 _003_
*5 _004_
*6 _005_
*7 _006_
*8 _007_
*9 _008_
*10 _009_
*11 _010_
*12 _011_
*13 _012_
*14 _013_
*15 _014_
*16 _015_
*17 _016_
*18 _017_
*19 _018_
*20 _019_
*21 _020_
*22 _021_
*23 _022_
*24 _023_
*25 _024_
*26 _025_
*27 _026_
*28 _027_
*29 _028_
*30 _029_
*31 _030_
*32 _031_
*33 _032_
*34 _033_
*35 _034_
*36 _035_
*37 _036_
*38 _037_
*39 _038_
*40 _039_
*41 _040_
*42 _041_
*43 _042_
*44 _043_
*45 _044_
*46 _045_
*47 _046_
*48 _047_
*49 _048_
*50 _049_
*51 _050_
*52 _051_
*53 _052_
*54 _053_
*55 _054_
*56 _055_
*57 _056_
*58 _057_
*59 _058_
*60 _059_
*61 _060_
*62 _061_
*63 _062_
*64 _063_
*65 _064_
*66 _065_
*67 _066_
*68 _067_
*69 _068_
*70 _069_
*71 _070_
*72 _071_
*73 _072_
*74 _073_
*75 io_config_timeout[8]
*76 io_config_timeout[7]
*77 _076_
*78 io_config_timeout[6]
*79 _078_
*80 _079_
*81 _080_
*82 _081_
*83 io_config_timeout[5]
*84 _083_
*85 io_config_timeout[4]
*86 _085_
*87 _086_
*88 _087_
*89 io_config_timeout[3]
*90 _089_
*91 io_config_timeout[2]
*92 _091_
*93 io_config_timeout[1]
*94 _093_
*95 _094_
*96 io_config_timeout[15]
*97 _096_
*98 _097_
*99 io_config_timeout[14]
*100 _099_
*101 io_config_timeout[13]
*102 _101_
*103 _102_
*104 io_config_timeout[12]
*105 _104_
*106 _105_
*107 io_config_timeout[11]
*108 _107_
*109 _108_
*110 _109_
*111 _110_
*112 io_config_timeout[10]
*113 _112_
*114 io_config_timeout[0]
*115 _114_
*116 _115_
*117 _116_
*118 io_config_deviceAddr[6]
*119 io_config_deviceAddr[5]
*120 io_config_deviceAddr[4]
*121 io_config_deviceAddr[3]
*122 _121_
*123 _122_
*124 _123_
*125 _124_
*126 _125_
*127 _126_
*128 _127_
*129 _128_
*130 _129_
*131 _130_
*132 _131_
*133 _132_
*134 _133_
*135 _134_
*136 _135_
*137 io_config_deviceAddr[2]
*138 _137_
*139 io_config_deviceAddr[1]
*140 io_config_deviceAddr[0]
*141 _140_
*142 _141_
*143 _142_
*144 io_config_clockDivider[9]
*145 _144_
*146 _145_
*147 _146_
*148 _147_
*149 _148_
*150 io_config_clockDivider[8]
*151 _150_
*152 _151_
*153 _152_
*154 _153_
*155 io_config_clockDivider[7]
*156 _155_
*157 _156_
*158 _157_
*159 _158_
*160 _159_
*161 _160_
*162 _161_
*163 _162_
*164 _163_
*165 _164_
*166 _165_
*167 _166_
*168 _167_
*169 _168_
*170 _169_
*171 _170_
*172 io_config_clockDivider[6]
*173 _172_
*174 _173_
*175 _174_
*176 _175_
*177 _176_
*178 _177_
*179 _178_
*180 _179_
*181 _180_
*182 _181_
*183 _182_
*184 _183_
*185 _184_
*186 _185_
*187 _186_
*188 _187_
*189 _188_
*190 _189_
*191 _190_
*192 _191_
*193 _192_
*194 io_config_clockDivider[5]
*195 _194_
*196 _195_
*197 _196_
*198 _197_
*199 io_config_clockDivider[4]
*200 io_config_clockDivider[3]
*201 _200_
*202 _201_
*203 _202_
*204 _203_
*205 io_config_clockDivider[2]
*206 _205_
*207 _206_
*208 io_config_clockDivider[1]
*209 _208_
*210 _209_
*211 _210_
*212 _211_
*213 _212_
*214 _213_
*215 _214_
*216 _215_
*217 _216_
*218 _217_
*219 _218_
*220 _219_
*221 _220_
*222 _221_
*223 _222_
*224 _223_
*225 _224_
*226 _225_
*227 _226_
*228 _227_
*229 _228_
*230 _229_
*231 _230_
*232 _231_
*233 _232_
*234 _233_
*235 _234_
*236 _235_
*237 _236_
*238 _237_
*239 _238_
*240 _239_
*241 _240_
*242 _241_
*243 _242_
*244 _243_
*245 _244_
*246 _245_
*247 _246_
*248 _247_
*249 io_config_clockDivider[15]
*250 _249_
*251 _250_
*252 _251_
*253 _252_
*254 _253_
*255 _254_
*256 _255_
*257 _256_
*258 _257_
*259 _258_
*260 _259_
*261 _260_
*262 _261_
*263 _262_
*264 _263_
*265 _264_
*266 _265_
*267 _266_
*268 _267_
*269 _268_
*270 _269_
*271 _270_
*272 _271_
*273 _272_
*274 _273_
*275 _274_
*276 _275_
*277 _276_
*278 _277_
*279 _278_
*280 _279_
*281 _280_
*282 _281_
*283 _282_
*284 _283_
*285 _284_
*286 _285_
*287 _286_
*288 _287_
*289 _288_
*290 io_config_clockDivider[14]
*291 _290_
*292 _291_
*293 _292_
*294 _293_
*295 _294_
*296 io_config_clockDivider[13]
*297 io_config_clockDivider[12]
*298 _297_
*299 _298_
*300 io_config_clockDivider[11]
*301 _300_
*302 _301_
*303 io_config_clockDivider[10]
*304 _303_
*305 _304_
*306 _305_
*307 _306_
*308 _307_
*309 _308_
*310 _309_
*311 _310_
*312 _311_
*313 _312_
*314 _313_
*315 _314_
*316 _315_
*317 _316_
*318 _317_
*319 _318_
*320 _319_
*321 _320_
*322 _321_
*323 _322_
*324 _323_
*325 _324_
*326 _325_
*327 _326_
*328 _327_
*329 _328_
*330 _329_
*331 _330_
*332 _331_
*333 _332_
*334 _333_
*335 _334_
*336 _335_
*337 _336_
*338 _337_
*339 _338_
*340 _339_
*341 _340_
*342 _341_
*343 _342_
*344 _343_
*345 _344_
*346 _345_
*347 _346_
*348 _347_
*349 _348_
*350 _349_
*351 _350_
*352 _351_
*353 _352_
*354 _353_
*355 _354_
*356 _355_
*357 _356_
*358 _357_
*359 _358_
*360 _359_
*361 _360_
*362 _361_
*363 net75
*364 net1
*365 _zz_ctrl_sdaWrite\[0\]
*366 _zz_ctrl_sdaWrite\[1\]
*367 _zz_ctrl_sdaWrite\[2\]
*368 _zz_ctrl_sdaWrite\[3\]
*369 _zz_ctrl_sdaWrite\[4\]
*370 _zz_ctrl_sdaWrite\[5\]
*371 _zz_ctrl_sdaWrite\[6\]
*372 _zz_ctrl_sdaWrite\[7\]
*373 _zz_ctrl_sdaWrite_1\[0\]
*374 _zz_ctrl_sdaWrite_1\[1\]
*375 _zz_ctrl_sdaWrite_1\[2\]
*376 _zz_filter_sampler_sclSamples_0
*377 _zz_filter_sampler_sclSamples_1
*378 _zz_filter_sampler_sclSamples_2
*379 _zz_filter_sampler_sdaSamples_0
*380 _zz_filter_sampler_sdaSamples_1
*381 _zz_filter_sampler_sdaSamples_2
*382 clock
*383 ctrl_bitCounter\[3\]
*384 ctrl_bitCounter\[4\]
*385 ctrl_cmdLock
*386 ctrl_frameCounter\[0\]
*387 ctrl_frameCounter\[1\]
*388 ctrl_frameCounter\[2\]
*389 ctrl_frameCounter\[3\]
*390 ctrl_response_error
*391 ctrl_state\[0\]
*392 ctrl_state\[1\]
*393 ctrl_transmission
*394 filter_scl
*395 filter_scl_regNext
*396 filter_sda
*397 filter_sda_regNext
*398 filter_timer_counter\[0\]
*399 filter_timer_counter\[10\]
*400 filter_timer_counter\[11\]
*401 filter_timer_counter\[12\]
*402 filter_timer_counter\[13\]
*403 filter_timer_counter\[14\]
*404 filter_timer_counter\[15\]
*405 filter_timer_counter\[1\]
*406 filter_timer_counter\[2\]
*407 filter_timer_counter\[3\]
*408 filter_timer_counter\[4\]
*409 filter_timer_counter\[5\]
*410 filter_timer_counter\[6\]
*411 filter_timer_counter\[7\]
*412 filter_timer_counter\[8\]
*413 filter_timer_counter\[9\]
*414 net132
*415 net133
*416 net134
*417 net135
*418 net136
*419 net137
*420 net138
*421 net139
*422 net140
*423 net141
*424 net79
*425 net142
*426 net80
*427 net81
*428 net82
*429 net83
*430 net84
*431 net85
*432 net86
*433 net87
*434 net88
*435 net89
*436 net90
*437 net91
*438 net92
*439 net93
*440 net94
*441 net95
*442 net96
*443 net97
*444 net98
*445 net99
*446 net100
*447 net101
*448 net102
*449 net103
*450 net104
*451 net105
*452 net106
*453 net107
*454 net108
*455 net109
*456 net110
*457 net111
*458 net112
*459 net113
*460 net114
*461 net115
*462 net116
*463 net117
*464 net118
*465 io_config_clockDivider[0]
*466 net119
*467 io_i2c_scl_write
*468 net120
*469 net143
*470 io_interrupts[0]
*471 net121
*472 net122
*473 net123
*474 net124
*475 net125
*476 net126
*477 net127
*478 net128
*479 net129
*480 net144
*481 net130
*482 net131
*483 timeout_transmission
*484 timeout_value\[0\]
*485 timeout_value\[10\]
*486 timeout_value\[11\]
*487 timeout_value\[12\]
*488 timeout_value\[13\]
*489 timeout_value\[14\]
*490 timeout_value\[15\]
*491 timeout_value\[1\]
*492 timeout_value\[2\]
*493 timeout_value\[3\]
*494 timeout_value\[4\]
*495 timeout_value\[5\]
*496 timeout_value\[6\]
*497 timeout_value\[7\]
*498 timeout_value\[8\]
*499 timeout_value\[9\]
*500 io_i2c_scl_read_buffercc/_0_
*501 io_i2c_scl_read_buffercc/_1_
*502 net77
*503 io_i2c_scl_read_buffercc/buffers_0
*504 io_i2c_sda_read_buffercc/_0_
*505 io_i2c_sda_read_buffercc/_1_
*507 io_i2c_sda_read_buffercc/buffers_0
*508 io_cmd_ready
*509 net2
*510 net3
*511 net4
*512 net5
*513 net6
*514 net7
*515 net8
*516 net9
*517 net10
*518 net11
*519 net12
*520 net13
*521 net14
*522 net15
*523 net16
*524 net17
*525 net18
*526 net19
*527 net20
*528 net21
*529 net22
*530 net23
*531 net24
*532 net25
*533 net26
*534 net27
*535 net28
*536 net29
*537 net30
*538 net31
*539 net32
*540 net33
*541 net34
*542 net35
*543 net36
*544 net37
*545 net38
*546 net39
*547 net40
*548 net41
*549 net42
*550 net43
*551 net44
*552 net45
*553 net46
*554 net47
*555 net48
*556 net49
*557 net50
*558 net51
*559 net52
*560 net53
*561 net54
*562 net55
*563 net56
*564 net57
*565 net58
*566 net59
*567 net60
*568 net61
*569 net62
*570 net63
*571 net64
*572 net65
*573 net66
*574 net67
*575 net68
*576 net69
*577 net70
*578 net71
*579 net72
*580 net73
*581 net74
*582 net76
*583 net78
*587 io_config_timeout[9]
*588 io_i2c_scl_read
*589 io_i2c_sda_read
*590 io_rsp_payload_data[0]
*591 io_rsp_payload_data[1]
*592 io_rsp_payload_data[2]
*593 io_rsp_payload_data[3]
*594 io_rsp_payload_data[4]
*595 io_rsp_payload_data[5]
*596 io_rsp_payload_data[6]
*597 io_rsp_payload_data[7]
*598 io_rsp_payload_error
*599 io_rsp_valid
*600 reset
*601 io_cmd_payload_data[0]
*602 io_cmd_payload_data[1]
*603 io_cmd_payload_data[2]
*604 io_cmd_payload_data[3]
*605 io_cmd_payload_data[4]
*606 io_cmd_payload_data[5]
*607 io_cmd_payload_data[6]
*608 io_cmd_payload_data[7]
*609 io_cmd_payload_read
*610 io_cmd_payload_reg
*611 io_cmd_valid
*612 io_i2c_sda_write
*613 io_rsp_ready
*614 net188
*615 clknet_4_1_0_clock
*616 clknet_4_6_0_clock
*617 net198
*618 net189
*619 net190
*620 net192
*621 net191
*622 net193
*623 net200
*624 net194
*625 net195
*626 net196
*627 net197
*628 net199
*629 clknet_0_clock
*630 clknet_4_0_0_clock
*631 clknet_4_5_0_clock
*632 net186
*633 net185
*634 clknet_4_3_0_clock
*635 clknet_4_4_0_clock
*636 net187
*637 clknet_4_2_0_clock
*638 clknet_4_7_0_clock
*639 clknet_4_8_0_clock
*640 clknet_4_9_0_clock
*641 clknet_4_10_0_clock
*642 clknet_4_11_0_clock
*643 clknet_4_12_0_clock
*644 clknet_4_13_0_clock
*645 clknet_4_14_0_clock
*646 clknet_4_15_0_clock
*647 input118
*648 input117
*649 _366_
*650 _367_
*651 input116
*652 _369_
*653 _370_
*654 _371_
*655 _372_
*656 input115
*657 _374_
*658 input114
*659 _376_
*660 _377_
*661 _378_
*662 input113
*663 _380_
*664 input112
*665 _382_
*666 input111
*667 _384_
*668 _385_
*669 input110
*670 _387_
*671 _388_
*672 input109
*673 _390_
*674 input108
*675 _392_
*676 _393_
*677 input107
*678 _395_
*679 _396_
*680 input106
*681 _398_
*682 _399_
*683 _400_
*684 _401_
*685 input105
*686 _403_
*687 input104
*688 _405_
*689 _406_
*690 _407_
*691 input103
*692 input102
*693 input101
*694 input100
*695 _412_
*696 _413_
*697 _414_
*698 _415_
*699 _416_
*700 _417_
*701 _418_
*702 _419_
*703 _420_
*704 _421_
*705 _422_
*706 _423_
*707 _424_
*708 _425_
*709 _426_
*710 _427_
*711 _428_
*712 input99
*713 _430_
*714 _431_
*715 input98
*716 _433_
*717 input97
*718 _435_
*719 _436_
*720 _437_
*721 _438_
*722 input96
*723 _440_
*724 _441_
*725 _442_
*726 _443_
*727 _444_
*728 _445_
*729 input95
*730 _447_
*731 _448_
*732 _449_
*733 _450_
*734 _451_
*735 input94
*736 _453_
*737 _454_
*738 _455_
*739 _456_
*740 _457_
*741 _458_
*742 _459_
*743 _460_
*744 _461_
*745 _462_
*746 _463_
*747 _464_
*748 _465_
*749 _466_
*750 _467_
*751 _468_
*752 _469_
*753 _470_
*754 _471_
*755 _472_
*756 input93
*757 _474_
*758 _475_
*759 _476_
*760 _477_
*761 _478_
*762 _479_
*763 _480_
*764 _481_
*765 _482_
*766 _483_
*767 _484_
*768 _485_
*769 _486_
*770 _487_
*771 _488_
*772 _489_
*773 _490_
*774 _491_
*775 _492_
*776 _493_
*777 _494_
*778 _495_
*779 _496_
*780 _497_
*781 _498_
*782 _499_
*783 _500_
*784 _501_
*785 _502_
*786 _503_
*787 _504_
*788 _505_
*789 _506_
*790 _507_
*791 _508_
*792 _509_
*793 _510_
*794 _511_
*795 _512_
*796 _513_
*797 _514_
*798 _515_
*799 input92
*800 _517_
*801 _518_
*802 _519_
*803 _520_
*804 _521_
*805 input91
*806 input90
*807 _524_
*808 _525_
*809 _526_
*810 _527_
*811 input89
*812 _529_
*813 _530_
*814 input88
*815 _532_
*816 _533_
*817 _534_
*818 _535_
*819 _536_
*820 _537_
*821 _538_
*822 _539_
*823 _540_
*824 _541_
*825 _542_
*826 _543_
*827 _544_
*828 _545_
*829 _546_
*830 _547_
*831 _548_
*832 _549_
*833 _550_
*834 _551_
*835 _552_
*836 _553_
*837 _554_
*838 _555_
*839 _556_
*840 _557_
*841 _558_
*842 _559_
*843 _560_
*844 _561_
*845 _562_
*846 _563_
*847 _564_
*848 _565_
*849 _566_
*850 _567_
*851 _568_
*852 _569_
*853 _570_
*854 _571_
*855 _572_
*856 _573_
*857 _574_
*858 _575_
*859 _576_
*860 _577_
*861 _578_
*862 _579_
*863 _580_
*864 _581_
*865 _582_
*866 _583_
*867 input87
*868 _585_
*869 _586_
*870 _587_
*871 _588_
*872 _589_
*873 _590_
*874 _591_
*875 _592_
*876 _593_
*877 _594_
*878 _595_
*879 _596_
*880 _597_
*881 _598_
*882 _599_
*883 _600_
*884 _601_
*885 _602_
*886 _603_
*887 _604_
*888 _605_
*889 _606_
*890 _607_
*891 _608_
*892 _609_
*893 _610_
*894 _611_
*895 _612_
*896 _613_
*897 _614_
*898 _615_
*899 _616_
*900 _617_
*901 _618_
*902 _619_
*903 _620_
*904 _621_
*905 _622_
*906 _623_
*907 _624_
*908 _625_
*909 _626_
*910 _627_
*911 _628_
*912 _629_
*913 _630_
*914 _631_
*915 _632_
*916 _633_
*917 _634_
*918 _635_
*919 _636_
*920 _637_
*921 _638_
*922 input86
*923 _640_
*924 _641_
*925 _642_
*926 _643_
*927 _644_
*928 input85
*929 input84
*930 _647_
*931 _648_
*932 _649_
*933 input83
*934 _651_
*935 _652_
*936 input82
*937 _654_
*938 _655_
*939 _656_
*940 _657_
*941 _658_
*942 _659_
*943 _660_
*944 _661_
*945 _662_
*946 _663_
*947 _664_
*948 _665_
*949 _666_
*950 _667_
*951 _668_
*952 _669_
*953 _670_
*954 _671_
*955 _672_
*956 _673_
*957 _674_
*958 _675_
*959 _676_
*960 _677_
*961 _678_
*962 _679_
*963 _680_
*964 _681_
*965 _682_
*966 _683_
*967 _684_
*968 _685_
*969 _686_
*970 _687_
*971 _688_
*972 _689_
*973 _690_
*974 _691_
*975 _692_
*976 _693_
*977 _694_
*978 _695_
*979 _696_
*980 _697_
*981 _698_
*982 _699_
*983 _700_
*984 _701_
*985 _702_
*986 _703_
*987 _704_
*988 _705_
*989 _706_
*990 _707_
*991 _708_
*992 _709_
*993 _710_
*994 _711_
*995 _712_
*996 _713_
*997 _714_
*998 _715_
*999 _716_
*1000 _717_
*1001 _718_
*1002 _719_
*1003 _720_
*1004 _721_
*1005 _722_
*1006 _723_
*1007 _724_
*1008 _725_
*1009 _726_
*1010 _727_
*1011 io_i2c_scl_read_buffercc/buffers_0\$_SDFF_PN1__76
*1012 _zz_filter_sampler_sclSamples_1\$_SDFFE_PN1P__2
*1013 input81
*1014 input80
*1015 _zz_filter_sampler_sclSamples_1\$_SDFFE_PN1P_
*1016 _zz_filter_sampler_sclSamples_2\$_SDFFE_PN1P_
*1017 _zz_filter_sampler_sdaSamples_1\$_SDFFE_PN1P_
*1018 _zz_filter_sampler_sdaSamples_2\$_SDFFE_PN1P_
*1019 ctrl_bitCounter\[0\]\$_SDFFCE_PN1P_
*1020 ctrl_bitCounter\[1\]\$_SDFFCE_PN1P_
*1021 ctrl_bitCounter\[2\]\$_SDFFCE_PN1P_
*1022 ctrl_bitCounter\[3\]\$_SDFFCE_PN1P_
*1023 ctrl_bitCounter\[4\]\$_SDFFCE_PN1P_
*1024 ctrl_cmdLock\$_DFF_P_
*1025 ctrl_frameCounter\[0\]\$_DFF_P_
*1026 ctrl_frameCounter\[1\]\$_DFF_P_
*1027 ctrl_frameCounter\[2\]\$_DFF_P_
*1028 ctrl_frameCounter\[3\]\$_DFF_P_
*1029 ctrl_read\$_DFF_P_
*1030 ctrl_response_data\[0\]\$_DFFE_PP_
*1031 ctrl_response_data\[1\]\$_DFFE_PP_
*1032 ctrl_response_data\[2\]\$_DFFE_PP_
*1033 ctrl_response_data\[3\]\$_DFFE_PP_
*1034 ctrl_response_data\[4\]\$_DFFE_PP_
*1035 ctrl_response_data\[5\]\$_DFFE_PP_
*1036 ctrl_response_data\[6\]\$_DFFE_PP_
*1037 ctrl_response_data\[7\]\$_DFFE_PP_
*1038 ctrl_response_error\$_DFF_P_
*1039 ctrl_sdaWrite\$_SDFF_PN0_
*1040 ctrl_shiftRegister\[0\]\$_DFFE_PP_
*1041 ctrl_shiftRegister\[1\]\$_DFFE_PP_
*1042 ctrl_shiftRegister\[2\]\$_DFFE_PP_
*1043 ctrl_shiftRegister\[3\]\$_DFFE_PP_
*1044 ctrl_shiftRegister\[4\]\$_DFFE_PP_
*1045 ctrl_shiftRegister\[5\]\$_DFFE_PP_
*1046 ctrl_shiftRegister\[6\]\$_DFFE_PP_
*1047 ctrl_shiftRegister\[7\]\$_DFFE_PP_
*1048 ctrl_state\[0\]\$_DFF_P_
*1049 ctrl_state\[1\]\$_DFF_P_
*1050 ctrl_state\[2\]\$_DFF_P_
*1051 ctrl_transmission\$_SDFFE_PN0P_
*1052 filter_scl\$_SDFFE_PN1P_
*1053 filter_scl_regNext\$_SDFF_PN1_
*1054 filter_sda\$_SDFFE_PN1P_
*1055 filter_sda_regNext\$_SDFF_PN1_
*1056 filter_timer_counter\[0\]\$_SDFF_PN0_
*1057 filter_timer_counter\[10\]\$_SDFF_PN0_
*1058 filter_timer_counter\[11\]\$_SDFF_PN0_
*1059 filter_timer_counter\[12\]\$_SDFF_PN0_
*1060 filter_timer_counter\[13\]\$_SDFF_PN0_
*1061 filter_timer_counter\[14\]\$_SDFF_PN0_
*1062 filter_timer_counter\[15\]\$_SDFF_PN0_
*1063 filter_timer_counter\[1\]\$_SDFF_PN0_
*1064 filter_timer_counter\[2\]\$_SDFF_PN0_
*1065 filter_timer_counter\[3\]\$_SDFF_PN0_
*1066 filter_timer_counter\[4\]\$_SDFF_PN0_
*1067 filter_timer_counter\[5\]\$_SDFF_PN0_
*1068 filter_timer_counter\[6\]\$_SDFF_PN0_
*1069 filter_timer_counter\[7\]\$_SDFF_PN0_
*1070 filter_timer_counter\[8\]\$_SDFF_PN0_
*1071 filter_timer_counter\[9\]\$_SDFF_PN0_
*1072 io_i2c_scl_read_buffercc/_3_
*1073 io_i2c_scl_read_buffercc/_4_
*1074 io_i2c_sda_read_buffercc/buffers_0\$_SDFF_PN1__78
*1075 io_i2c_scl_read_buffercc/buffers_0\$_SDFF_PN1_
*1076 io_i2c_scl_read_buffercc/buffers_1\$_SDFF_PN1_
*1077 io_i2c_sda_read_buffercc/_3_
*1078 io_i2c_sda_read_buffercc/_4_
*1079 input119
*1080 io_i2c_sda_read_buffercc/buffers_0\$_SDFF_PN1_
*1081 io_i2c_sda_read_buffercc/buffers_1\$_SDFF_PN1_
*1082 timeout_transmission\$_SDFFE_PP0P_
*1083 timeout_value\[0\]\$_SDFFE_PN0P_
*1084 timeout_value\[10\]\$_SDFFE_PN0P_
*1085 timeout_value\[11\]\$_SDFFE_PN0P_
*1086 timeout_value\[12\]\$_SDFFE_PN0P_
*1087 timeout_value\[13\]\$_SDFFE_PN0P_
*1088 timeout_value\[14\]\$_SDFFE_PN0P_
*1089 timeout_value\[15\]\$_SDFFE_PN0P_
*1090 timeout_value\[1\]\$_SDFFE_PN0P_
*1091 timeout_value\[2\]\$_SDFFE_PN0P_
*1092 timeout_value\[3\]\$_SDFFE_PN0P_
*1093 timeout_value\[4\]\$_SDFFE_PN0P_
*1094 timeout_value\[5\]\$_SDFFE_PN0P_
*1095 timeout_value\[6\]\$_SDFFE_PN0P_
*1096 timeout_value\[7\]\$_SDFFE_PN0P_
*1097 timeout_value\[8\]\$_SDFFE_PN0P_
*1098 timeout_value\[9\]\$_SDFFE_PN0P_
*1099 _731__1
*1100 _zz_filter_sampler_sclSamples_2\$_SDFFE_PN1P__3
*1101 _zz_filter_sampler_sdaSamples_1\$_SDFFE_PN1P__4
*1102 _zz_filter_sampler_sdaSamples_2\$_SDFFE_PN1P__5
*1103 ctrl_bitCounter\[0\]\$_SDFFCE_PN1P__6
*1104 ctrl_bitCounter\[1\]\$_SDFFCE_PN1P__7
*1105 ctrl_bitCounter\[2\]\$_SDFFCE_PN1P__8
*1106 ctrl_bitCounter\[3\]\$_SDFFCE_PN1P__9
*1107 ctrl_bitCounter\[4\]\$_SDFFCE_PN1P__10
*1108 ctrl_cmdLock\$_DFF_P__11
*1109 ctrl_frameCounter\[0\]\$_DFF_P__12
*1110 ctrl_frameCounter\[1\]\$_DFF_P__13
*1111 ctrl_frameCounter\[2\]\$_DFF_P__14
*1112 ctrl_frameCounter\[3\]\$_DFF_P__15
*1113 ctrl_read\$_DFF_P__16
*1114 ctrl_response_data\[0\]\$_DFFE_PP__17
*1115 ctrl_response_data\[1\]\$_DFFE_PP__18
*1116 ctrl_response_data\[2\]\$_DFFE_PP__19
*1117 ctrl_response_data\[3\]\$_DFFE_PP__20
*1118 ctrl_response_data\[4\]\$_DFFE_PP__21
*1119 ctrl_response_data\[5\]\$_DFFE_PP__22
*1120 ctrl_response_data\[6\]\$_DFFE_PP__23
*1121 ctrl_response_data\[7\]\$_DFFE_PP__24
*1122 ctrl_response_error\$_DFF_P__25
*1123 ctrl_sdaWrite\$_SDFF_PN0__26
*1124 ctrl_shiftRegister\[0\]\$_DFFE_PP__27
*1125 ctrl_shiftRegister\[1\]\$_DFFE_PP__28
*1126 ctrl_shiftRegister\[2\]\$_DFFE_PP__29
*1127 ctrl_shiftRegister\[3\]\$_DFFE_PP__30
*1128 ctrl_shiftRegister\[4\]\$_DFFE_PP__31
*1129 ctrl_shiftRegister\[5\]\$_DFFE_PP__32
*1130 ctrl_shiftRegister\[6\]\$_DFFE_PP__33
*1131 ctrl_shiftRegister\[7\]\$_DFFE_PP__34
*1132 ctrl_state\[0\]\$_DFF_P__35
*1133 ctrl_state\[1\]\$_DFF_P__36
*1134 ctrl_state\[2\]\$_DFF_P__37
*1135 ctrl_transmission\$_SDFFE_PN0P__38
*1136 filter_scl\$_SDFFE_PN1P__39
*1137 filter_scl_regNext\$_SDFF_PN1__40
*1138 filter_sda\$_SDFFE_PN1P__41
*1139 filter_sda_regNext\$_SDFF_PN1__42
*1140 filter_timer_counter\[0\]\$_SDFF_PN0__43
*1141 filter_timer_counter\[10\]\$_SDFF_PN0__44
*1142 filter_timer_counter\[11\]\$_SDFF_PN0__45
*1143 filter_timer_counter\[12\]\$_SDFF_PN0__46
*1144 filter_timer_counter\[13\]\$_SDFF_PN0__47
*1145 filter_timer_counter\[14\]\$_SDFF_PN0__48
*1146 filter_timer_counter\[15\]\$_SDFF_PN0__49
*1147 filter_timer_counter\[1\]\$_SDFF_PN0__50
*1148 filter_timer_counter\[2\]\$_SDFF_PN0__51
*1149 filter_timer_counter\[3\]\$_SDFF_PN0__52
*1150 filter_timer_counter\[4\]\$_SDFF_PN0__53
*1151 filter_timer_counter\[5\]\$_SDFF_PN0__54
*1152 filter_timer_counter\[6\]\$_SDFF_PN0__55
*1153 filter_timer_counter\[7\]\$_SDFF_PN0__56
*1154 filter_timer_counter\[8\]\$_SDFF_PN0__57
*1155 filter_timer_counter\[9\]\$_SDFF_PN0__58
*1156 timeout_transmission\$_SDFFE_PP0P__59
*1157 timeout_value\[0\]\$_SDFFE_PN0P__60
*1158 timeout_value\[10\]\$_SDFFE_PN0P__61
*1159 timeout_value\[11\]\$_SDFFE_PN0P__62
*1160 timeout_value\[12\]\$_SDFFE_PN0P__63
*1161 timeout_value\[13\]\$_SDFFE_PN0P__64
*1162 timeout_value\[14\]\$_SDFFE_PN0P__65
*1163 timeout_value\[15\]\$_SDFFE_PN0P__66
*1164 timeout_value\[1\]\$_SDFFE_PN0P__67
*1165 timeout_value\[2\]\$_SDFFE_PN0P__68
*1166 timeout_value\[3\]\$_SDFFE_PN0P__69
*1167 timeout_value\[4\]\$_SDFFE_PN0P__70
*1168 timeout_value\[5\]\$_SDFFE_PN0P__71
*1169 timeout_value\[6\]\$_SDFFE_PN0P__72
*1170 timeout_value\[7\]\$_SDFFE_PN0P__73
*1171 timeout_value\[8\]\$_SDFFE_PN0P__74
*1172 timeout_value\[9\]\$_SDFFE_PN0P__75
*1173 io_i2c_scl_read_buffercc/buffers_1\$_SDFF_PN1__77
*1174 io_i2c_sda_read_buffercc/buffers_1\$_SDFF_PN1__79
*1175 input120
*1176 input121
*1177 input122
*1178 input123
*1179 input124
*1180 input125
*1181 input126
*1182 input127
*1183 input128
*1184 input129
*1185 input130
*1186 input131
*1187 input132
*1188 output133
*1189 output134
*1190 output135
*1191 output136
*1192 output137
*1193 output138
*1194 output139
*1195 output140
*1196 output141
*1197 output142
*1198 output143
*1199 output144
*1200 output145
*1201 place189
*1202 clkbuf_4_1_0_clock
*1203 clkbuf_4_6_0_clock
*1204 place199
*1205 place190
*1206 place191
*1207 place193
*1208 place192
*1209 place194
*1210 place201
*1211 place195
*1212 place196
*1213 place197
*1214 place198
*1215 place200
*1216 clkbuf_0_clock
*1217 clkbuf_4_0_0_clock
*1218 clkbuf_4_5_0_clock
*1219 place187
*1220 place186
*1221 clkbuf_4_3_0_clock
*1222 clkbuf_4_4_0_clock
*1223 place188
*1224 clkbuf_4_2_0_clock
*1225 clkbuf_4_7_0_clock
*1226 clkbuf_4_8_0_clock
*1227 clkbuf_4_9_0_clock
*1228 clkbuf_4_10_0_clock
*1229 clkbuf_4_11_0_clock
*1230 clkbuf_4_12_0_clock
*1231 clkbuf_4_13_0_clock
*1232 clkbuf_4_14_0_clock
*1233 clkbuf_4_15_0_clock
*1234 clkload0
*1235 clkload1
*1236 FILLER_0_0
*1237 FILLER_0_5
*1238 FILLER_0_37
*1239 FILLER_0_42
*1240 FILLER_0_46
*1241 FILLER_0_62
*1242 FILLER_0_69
*1243 FILLER_0_76
*1244 FILLER_0_80
*1245 FILLER_0_85
*1246 FILLER_0_89
*1247 FILLER_0_107
*1248 FILLER_0_112
*1249 FILLER_0_114
*1250 FILLER_0_142
*1251 FILLER_0_144
*1252 FILLER_0_149
*1253 FILLER_0_156
*1254 FILLER_0_163
*1255 FILLER_0_167
*1256 FILLER_0_176
*1257 FILLER_0_189
*1258 FILLER_0_205
*1259 FILLER_0_210
*1260 FILLER_0_221
*1261 FILLER_0_228
*1262 FILLER_1_18
*1263 FILLER_1_78
*1264 FILLER_1_82
*1265 FILLER_1_169
*1266 FILLER_1_178
*1267 FILLER_1_182
*1268 FILLER_2_0
*1269 FILLER_2_15
*1270 FILLER_2_22
*1271 FILLER_2_29
*1272 FILLER_2_33
*1273 FILLER_2_48
*1274 FILLER_2_53
*1275 FILLER_2_62
*1276 FILLER_2_67
*1277 FILLER_2_124
*1278 FILLER_2_128
*1279 FILLER_2_140
*1280 FILLER_2_147
*1281 FILLER_2_151
*1282 FILLER_3_0
*1283 FILLER_3_35
*1284 FILLER_3_76
*1285 FILLER_3_83
*1286 FILLER_3_94
*1287 FILLER_3_101
*1288 FILLER_3_119
*1289 FILLER_3_121
*1290 FILLER_3_163
*1291 FILLER_3_174
*1292 FILLER_3_193
*1293 FILLER_3_200
*1294 FILLER_3_204
*1295 FILLER_3_217
*1296 FILLER_3_226
*1297 FILLER_3_228
*1298 FILLER_4_4
*1299 FILLER_4_23
*1300 FILLER_4_30
*1301 FILLER_4_37
*1302 FILLER_4_39
*1303 FILLER_4_61
*1304 FILLER_4_68
*1305 FILLER_4_75
*1306 FILLER_4_103
*1307 FILLER_4_110
*1308 FILLER_4_120
*1309 FILLER_4_124
*1310 FILLER_4_129
*1311 FILLER_4_133
*1312 FILLER_4_140
*1313 FILLER_4_146
*1314 FILLER_4_170
*1315 FILLER_4_226
*1316 FILLER_4_228
*1317 FILLER_5_0
*1318 FILLER_5_2
*1319 FILLER_5_17
*1320 FILLER_5_45
*1321 FILLER_5_52
*1322 FILLER_5_86
*1323 FILLER_5_122
*1324 FILLER_5_126
*1325 FILLER_5_136
*1326 FILLER_5_171
*1327 FILLER_5_178
*1328 FILLER_5_180
*1329 FILLER_5_212
*1330 FILLER_6_0
*1331 FILLER_6_2
*1332 FILLER_6_7
*1333 FILLER_6_56
*1334 FILLER_6_63
*1335 FILLER_6_81
*1336 FILLER_6_83
*1337 FILLER_6_89
*1338 FILLER_6_139
*1339 FILLER_6_146
*1340 FILLER_6_148
*1341 FILLER_6_153
*1342 FILLER_6_157
*1343 FILLER_6_163
*1344 FILLER_6_170
*1345 FILLER_6_219
*1346 FILLER_6_223
*1347 FILLER_7_0
*1348 FILLER_7_80
*1349 FILLER_7_82
*1350 FILLER_7_90
*1351 FILLER_7_92
*1352 FILLER_7_97
*1353 FILLER_7_104
*1354 FILLER_7_106
*1355 FILLER_7_116
*1356 FILLER_7_132
*1357 FILLER_7_144
*1358 FILLER_7_151
*1359 FILLER_7_158
*1360 FILLER_7_160
*1361 FILLER_7_201
*1362 FILLER_8_0
*1363 FILLER_8_14
*1364 FILLER_8_20
*1365 FILLER_8_27
*1366 FILLER_8_65
*1367 FILLER_8_67
*1368 FILLER_8_76
*1369 FILLER_8_83
*1370 FILLER_8_101
*1371 FILLER_8_103
*1372 FILLER_8_119
*1373 FILLER_8_126
*1374 FILLER_8_131
*1375 FILLER_8_157
*1376 FILLER_8_159
*1377 FILLER_8_172
*1378 FILLER_8_178
*1379 FILLER_8_185
*1380 FILLER_8_192
*1381 FILLER_8_196
*1382 FILLER_8_211
*1383 FILLER_8_218
*1384 FILLER_8_225
*1385 FILLER_9_4
*1386 FILLER_9_36
*1387 FILLER_9_54
*1388 FILLER_9_61
*1389 FILLER_9_79
*1390 FILLER_9_83
*1391 FILLER_9_89
*1392 FILLER_9_96
*1393 FILLER_9_102
*1394 FILLER_9_109
*1395 FILLER_9_127
*1396 FILLER_9_134
*1397 FILLER_9_141
*1398 FILLER_9_143
*1399 FILLER_9_159
*1400 FILLER_9_174
*1401 FILLER_9_176
*1402 FILLER_9_182
*1403 FILLER_9_186
*1404 FILLER_9_200
*1405 FILLER_10_0
*1406 FILLER_10_4
*1407 FILLER_10_91
*1408 FILLER_10_131
*1409 FILLER_10_133
*1410 FILLER_10_161
*1411 FILLER_10_163
*1412 FILLER_10_227
*1413 FILLER_11_0
*1414 FILLER_11_17
*1415 FILLER_11_24
*1416 FILLER_11_31
*1417 FILLER_11_84
*1418 FILLER_11_91
*1419 FILLER_11_110
*1420 FILLER_11_115
*1421 FILLER_11_122
*1422 FILLER_11_129
*1423 FILLER_11_136
*1424 FILLER_11_141
*1425 FILLER_11_148
*1426 FILLER_11_180
*1427 FILLER_11_222
*1428 FILLER_12_0
*1429 FILLER_12_33
*1430 FILLER_12_40
*1431 FILLER_12_48
*1432 FILLER_12_55
*1433 FILLER_12_57
*1434 FILLER_12_104
*1435 FILLER_12_123
*1436 FILLER_12_155
*1437 FILLER_12_162
*1438 FILLER_12_173
*1439 FILLER_12_188
*1440 FILLER_12_192
*1441 FILLER_13_0
*1442 FILLER_13_2
*1443 FILLER_13_12
*1444 FILLER_13_45
*1445 FILLER_13_49
*1446 FILLER_13_72
*1447 FILLER_13_77
*1448 FILLER_13_79
*1449 FILLER_13_107
*1450 FILLER_13_114
*1451 FILLER_13_158
*1452 FILLER_13_165
*1453 FILLER_14_8
*1454 FILLER_14_12
*1455 FILLER_14_22
*1456 FILLER_14_24
*1457 FILLER_14_29
*1458 FILLER_14_31
*1459 FILLER_14_36
*1460 FILLER_14_38
*1461 FILLER_14_43
*1462 FILLER_14_71
*1463 FILLER_14_73
*1464 FILLER_14_83
*1465 FILLER_14_85
*1466 FILLER_14_95
*1467 FILLER_14_107
*1468 FILLER_14_111
*1469 FILLER_14_124
*1470 FILLER_14_126
*1471 FILLER_14_158
*1472 FILLER_14_162
*1473 FILLER_14_178
*1474 FILLER_14_187
*1475 FILLER_14_208
*1476 FILLER_14_215
*1477 FILLER_14_222
*1478 FILLER_15_0
*1479 FILLER_15_2
*1480 FILLER_15_24
*1481 FILLER_15_47
*1482 FILLER_15_56
*1483 FILLER_15_61
*1484 FILLER_15_70
*1485 FILLER_15_72
*1486 FILLER_15_83
*1487 FILLER_15_122
*1488 FILLER_15_127
*1489 FILLER_15_134
*1490 FILLER_15_141
*1491 FILLER_15_148
*1492 FILLER_15_155
*1493 FILLER_15_159
*1494 FILLER_15_188
*1495 FILLER_15_194
*1496 FILLER_15_199
*1497 FILLER_15_209
*1498 FILLER_15_216
*1499 FILLER_15_223
*1500 FILLER_15_227
*1501 FILLER_16_0
*1502 FILLER_16_37
*1503 FILLER_16_63
*1504 FILLER_16_107
*1505 FILLER_16_118
*1506 FILLER_16_147
*1507 FILLER_16_154
*1508 FILLER_16_167
*1509 FILLER_16_169
*1510 FILLER_16_192
*1511 FILLER_17_0
*1512 FILLER_17_42
*1513 FILLER_17_77
*1514 FILLER_17_86
*1515 FILLER_17_123
*1516 FILLER_17_130
*1517 FILLER_17_132
*1518 FILLER_17_155
*1519 FILLER_17_157
*1520 FILLER_17_170
*1521 FILLER_17_212
*1522 FILLER_17_214
*1523 FILLER_17_227
*1524 FILLER_18_0
*1525 FILLER_18_7
*1526 FILLER_18_14
*1527 FILLER_18_19
*1528 FILLER_18_26
*1529 FILLER_18_30
*1530 FILLER_18_35
*1531 FILLER_18_42
*1532 FILLER_18_49
*1533 FILLER_18_56
*1534 FILLER_18_60
*1535 FILLER_18_65
*1536 FILLER_18_69
*1537 FILLER_18_74
*1538 FILLER_18_81
*1539 FILLER_18_88
*1540 FILLER_18_95
*1541 FILLER_18_102
*1542 FILLER_18_106
*1543 FILLER_18_118
*1544 FILLER_18_125
*1545 FILLER_18_164
*1546 FILLER_18_175
*1547 FILLER_18_182
*1548 FILLER_18_190
*1549 FILLER_18_198
*1550 FILLER_18_226
*1551 FILLER_18_228
*1552 FILLER_19_0
*1553 FILLER_19_12
*1554 FILLER_19_16
*1555 FILLER_19_21
*1556 FILLER_19_23
*1557 FILLER_19_56
*1558 FILLER_19_93
*1559 FILLER_19_98
*1560 FILLER_19_117
*1561 FILLER_19_123
*1562 FILLER_19_145
*1563 FILLER_19_152
*1564 FILLER_19_159
*1565 FILLER_19_203
*1566 FILLER_19_212
*1567 FILLER_19_223
*1568 FILLER_20_12
*1569 FILLER_20_18
*1570 FILLER_20_32
*1571 FILLER_20_38
*1572 FILLER_20_43
*1573 FILLER_20_69
*1574 FILLER_20_75
*1575 FILLER_20_82
*1576 FILLER_20_95
*1577 FILLER_20_121
*1578 FILLER_20_125
*1579 FILLER_20_148
*1580 FILLER_20_155
*1581 FILLER_20_162
*1582 FILLER_20_164
*1583 FILLER_20_172
*1584 FILLER_20_186
*1585 FILLER_20_191
*1586 FILLER_20_206
*1587 FILLER_20_210
*1588 FILLER_20_227
*1589 FILLER_21_0
*1590 FILLER_21_42
*1591 FILLER_21_48
*1592 FILLER_21_91
*1593 FILLER_21_93
*1594 FILLER_21_103
*1595 FILLER_21_110
*1596 FILLER_21_117
*1597 FILLER_21_124
*1598 FILLER_21_131
*1599 FILLER_21_133
*1600 FILLER_21_161
*1601 FILLER_21_172
*1602 FILLER_21_191
*1603 FILLER_21_198
*1604 FILLER_21_200
*1605 FILLER_21_213
*1606 FILLER_22_0
*1607 FILLER_22_4
*1608 FILLER_22_10
*1609 FILLER_22_14
*1610 FILLER_22_23
*1611 FILLER_22_25
*1612 FILLER_22_34
*1613 FILLER_22_41
*1614 FILLER_22_58
*1615 FILLER_22_66
*1616 FILLER_22_94
*1617 FILLER_22_100
*1618 FILLER_22_107
*1619 FILLER_22_111
*1620 FILLER_22_147
*1621 FILLER_22_149
*1622 FILLER_22_154
*1623 FILLER_22_161
*1624 FILLER_22_168
*1625 FILLER_22_172
*1626 FILLER_22_191
*1627 FILLER_22_200
*1628 FILLER_22_202
*1629 FILLER_23_0
*1630 FILLER_23_4
*1631 FILLER_23_9
*1632 FILLER_23_15
*1633 FILLER_23_29
*1634 FILLER_23_57
*1635 FILLER_23_64
*1636 FILLER_23_66
*1637 FILLER_23_72
*1638 FILLER_23_78
*1639 FILLER_23_83
*1640 FILLER_23_111
*1641 FILLER_23_139
*1642 FILLER_23_172
*1643 FILLER_23_186
*1644 FILLER_23_208
*1645 FILLER_23_210
*1646 FILLER_23_219
*1647 FILLER_24_0
*1648 FILLER_24_28
*1649 FILLER_24_30
*1650 FILLER_24_47
*1651 FILLER_24_54
*1652 FILLER_24_61
*1653 FILLER_24_65
*1654 FILLER_24_74
*1655 FILLER_24_102
*1656 FILLER_24_109
*1657 FILLER_24_116